cases/transmission/generated_cases/hourly_case_14.m
%% MATPOWER Case Format : Version 2
function mpc = case2383wp
mpc.version = '2';
%%-----  Power Flow Data  -----%%
%% system MVA base
mpc.baseMVA = 100;
%% bus data
%    bus_i    type    Pd    Qd    Gs    Bs    area    Vm    Va    baseKV    zone    Vmax    Vmin
mpc.bus = [
	1	1	0.0	0.0	0.0	0.0	1	1.0958661570958461	8.366127242733187	220.0	1	1.11	0.95				
	2	1	0.0	0.0	0.0	0.0	1	1.0869484096735187	9.346322838553037	220.0	1	1.11	0.95				
	3	1	0.0	0.0	0.0	0.0	1	1.0844352410654452	3.6966325238181046	220.0	1	1.11	0.95				
	4	1	0.0	0.0	0.0	0.0	1	1.0796697649629523	8.181033873362558	220.0	1	1.11	0.95				
	5	1	0.0	0.0	0.0	0.0	1	1.0726053165403142	4.496041741093965	220.0	1	1.11	0.95				
	6	1	0.0	0.0	0.0	0.0	1	1.0340499224136204	5.971817051309034	400.0	1	1.05	0.95				
	7	1	0.0	0.0	0.0	0.0	1	1.0670877762828201	3.958433550734937	220.0	1	1.11	0.95				
	8	1	0.0	0.0	0.0	0.0	1	1.0399751630983776	4.44442051083047	400.0	1	1.05	0.95				
	9	1	0.0	0.0	0.0	0.0	1	1.0451248833029758	5.119977071648967	400.0	1	1.05	0.95				
	10	2	9.2948	6.84	0.0	0.0	1	1.1082311	8.182965682485802	220.0	1	1.11	0.95				
	11	1	0.0	0.0	0.0	0.0	1	1.08499821224991	8.619757919475207	220.0	1	1.11	0.95				
	12	1	0.0	0.0	0.0	0.0	1	1.0695811512253814	4.559010697238941	220.0	1	1.11	0.95				
	13	1	0.0	0.0	0.0	0.0	1	1.0716325804426017	4.023708530309748	220.0	1	1.11	0.95				
	14	1	0.0	0.0	0.0	0.0	1	1.073174913962947	8.302565365853047	220.0	1	1.11	0.95				
	15	1	0.0	0.0	0.0	0.0	1	1.0293745868956277	2.9708678601209892	400.0	1	1.05	0.95				
	16	2	41.708800000000004	76.0	0.0	0.0	1	1.0974008	8.649133685934126	220.0	1	1.11	0.95				
	17	2	58.52	114.00000000000001	0.0	0.0	1	1.0910267	9.849047626886662	220.0	1	1.11	0.95				
	18	3	116.28	266.0	0.0	0.0	1	1.0337129	0.0	400.0	1	1.05	0.95				
	19	1	0.0	0.0	0.0	0.0	1	1.0701157789314102	4.034187834815209	220.0	1	1.11	0.95				
	20	1	0.0	0.0	0.0	0.0	1	1.0334069350786914	2.3958278109292688	400.0	1	1.05	0.95				
	21	1	0.0	0.0	0.0	0.0	1	1.0667325017022222	3.687190330230235	220.0	1	1.11	0.95				
	22	1	0.0	0.0	0.0	0.0	1	1.0838952512154865	9.410328969506471	220.0	1	1.11	0.95				
	23	1	0.0	0.0	0.0	0.0	1	1.064211886582795	7.621010730463082	220.0	2	1.11	0.95				
	24	1	0.0	0.0	0.0	0.0	1	1.0554129579284672	10.5197810785867	220.0	2	1.11	0.95				
	25	1	0.0	0.0	0.0	0.0	1	1.057639411946189	11.838856212096898	220.0	2	1.11	0.95				
	26	1	0.0	0.0	0.0	0.0	1	1.0542583909522145	6.202507871472775	220.0	2	1.11	0.95				
	27	1	0.0	0.0	0.0	0.0	1	1.0683443898837959	9.5428564861583	220.0	2	1.11	0.95				
	28	1	0.0	0.0	0.0	0.0	1	1.0683111142404034	9.549453916979186	220.0	2	1.11	0.95				
	29	2	19.7448	45.599999999999994	0.0	0.0	1	1.0967104	8.092400649462052	220.0	2	1.11	0.95				
	30	2	19.7448	45.599999999999994	0.0	0.0	1	1.0967037	8.091740339291375	220.0	2	1.11	0.95				
	31	2	15.9448	38.0	0.0	0.0	1	1.0214422	10.955093796006643	400.0	2	1.05	0.95				
	32	1	0.0	0.0	0.0	0.0	1	1.0214557661314103	10.930052263591364	400.0	2	1.05	0.95				
	33	1	0.0	0.0	0.0	0.0	1	1.0632096199619958	9.059623923887669	220.0	2	1.11	0.95				
	34	1	0.0	0.0	0.0	0.0	1	1.04511844248778	10.292195726169544	400.0	2	1.05	0.95				
	35	1	0.0	0.0	0.0	0.0	1	1.045140904030554	10.287680279272301	400.0	2	1.05	0.95				
	36	1	0.0	0.0	0.0	0.0	1	1.006293822581552	8.802871487619552	400.0	2	1.05	0.95				
	37	1	0.0	0.0	0.0	0.0	1	1.0639612772885072	7.8021644339129965	220.0	2	1.11	0.95				
	38	1	0.0	0.0	0.0	0.0	1	1.0639623206696773	7.804242347822079	220.0	2	1.11	0.95				
	39	1	0.0	0.0	0.0	0.0	1	1.0177433673249445	11.797971318070845	400.0	2	1.05	0.95				
	40	1	0.0	0.0	0.0	0.0	1	1.017721701054362	11.805177691600374	400.0	2	1.05	0.95				
	41	2	9.112400000000001	22.799999999999997	0.0	0.0	1	1.0608776	13.381895280819736	220.0	2	1.11	0.95				
	42	2	9.112400000000001	22.799999999999997	0.0	0.0	1	1.0608614	13.371167805754258	220.0	2	1.11	0.95				
	43	2	18.224800000000002	45.599999999999994	0.0	0.0	1	1.0229141	13.574540538199589	400.0	2	1.05	0.95				
	44	2	18.224800000000002	45.599999999999994	0.0	0.0	1	1.0229414	13.563180449124305	400.0	2	1.05	0.95				
	45	2	121.47840000000001	57.00000000000001	0.0	0.0	1	1.0792177	7.478710049090415	220.0	2	1.11	0.95				
	46	1	0.0	0.0	0.0	0.0	1	1.0792330471158824	7.480535468826658	220.0	2	1.11	0.95				
	47	1	0.0	0.0	0.0	0.0	1	1.0626430490479197	9.573765082452217	220.0	2	1.11	0.95				
	48	1	0.0	0.0	0.0	0.0	1	1.0807583328400077	7.619826382351856	220.0	2	1.11	0.95				
	49	1	0.0	0.0	0.0	0.0	1	1.0807711194275955	7.618325885252911	220.0	2	1.11	0.95				
	50	1	0.0	0.0	0.0	0.0	1	1.0314807149023364	11.442722253261772	400.0	2	1.05	0.95				
	51	1	0.0	0.0	0.0	0.0	1	1.0315656226452314	11.431682656483503	400.0	2	1.05	0.95				
	52	1	0.0	0.0	0.0	0.0	1	1.0548078991672536	10.23445613493269	220.0	2	1.11	0.95				
	53	1	0.0	0.0	0.0	0.0	1	1.0567957312772385	10.278184415807496	220.0	2	1.11	0.95				
	54	1	0.0	0.0	0.0	0.0	1	1.0578134495996105	11.88388750409459	220.0	2	1.11	0.95				
	55	1	0.0	0.0	0.0	0.0	1	1.0686143044776208	8.871005819071398	220.0	2	1.11	0.95				
	56	1	0.0	0.0	0.0	0.0	1	1.0759563149211353	8.66382863611877	220.0	3	1.11	0.95				
	57	1	17.4648	8.329600000000001	0.0	0.0	1	1.0803706216193076	15.038442990758927	220.0	3	1.11	0.95				
	58	1	16.7048	4.4004	0.0	0.0	1	1.0805347113639894	15.038466025306194	220.0	3	1.11	0.95				
	59	1	0.0	0.0	0.0	0.0	1	1.1063122007908703	22.489690105313127	220.0	3	1.11	0.95				
	60	1	0.0	0.0	0.0	0.0	1	1.104567349797046	16.44495853855242	220.0	3	1.11	0.95				
	61	1	0.0	0.0	0.0	0.0	1	1.108643403757155	24.469741764121217	220.0	3	1.11	0.95				
	62	1	0.0	0.0	0.0	0.0	1	1.1086234635275038	24.473552412689813	220.0	3	1.11	0.95				
	63	2	28.4012	40.044399999999996	0.0	0.0	1	1.11	22.32651214721648	220.0	3	1.11	0.95				
	64	2	26.8812	42.043200000000006	0.0	0.0	1	1.1092626	21.803732366439682	220.0	3	1.11	0.95				
	65	1	10.176400000000003	1.5352	0.0	0.0	1	1.1046054340366454	20.67023762272027	220.0	3	1.11	0.95				
	66	1	0.0	0.0	0.0	0.0	1	1.1047761586827067	12.735203758235379	220.0	3	1.11	0.95				
	67	2	45.904	69.996	0.0	0.0	1	1.05	12.801523422414823	400.0	3	1.05	0.95				
	68	1	0.0	0.0	0.0	0.0	1	1.103062697414145	14.107132462018226	220.0	3	1.11	0.95				
	69	1	0.0	0.0	0.0	0.0	1	1.1072735780645642	20.401889471290584	220.0	3	1.11	0.95				
	70	1	0.0	0.0	0.0	0.0	1	1.0790722425954464	9.771597308605958	220.0	3	1.11	0.95				
	71	1	0.0	0.0	0.0	0.0	1	1.099287578906107	18.367442350233475	220.0	3	1.11	0.95				
	72	1	0.0	0.0	0.0	0.0	1	1.099287578906107	18.367442350233475	220.0	3	1.11	0.95				
	73	1	0.0	0.0	0.0	0.0	1	1.0803888201165535	9.929416310968469	220.0	3	1.11	0.95				
	74	1	0.0	0.0	0.0	0.0	1	1.0796625588433313	9.197331195872845	220.0	3	1.11	0.95				
	75	1	0.0	0.0	0.0	0.0	1	1.0289098355331447	4.438321233504236	400.0	3	1.05	0.95				
	76	1	0.0	0.0	0.0	0.0	1	1.0288766178991267	4.441552578451715	400.0	3	1.05	0.95				
	77	1	0.0	0.0	0.0	0.0	1	1.0992518361046055	18.15471109693382	220.0	3	1.11	0.95				
	78	1	0.0	0.0	0.0	0.0	1	1.0980862664465547	15.528990437064444	220.0	3	1.11	0.95				
	79	1	0.0	0.0	0.0	0.0	1	1.094559866505252	18.373955250118367	220.0	3	1.11	0.95				
	80	1	0.0	0.0	0.0	0.0	1	1.0808458157066114	15.077495170127726	220.0	3	1.11	0.95				
	81	1	0.0	0.0	0.0	0.0	1	1.0808680113518485	15.077726641390184	220.0	3	1.11	0.95				
	82	1	0.0	0.0	0.0	0.0	1	1.1049122558150675	23.62828561755853	220.0	3	1.11	0.95				
	83	2	12.1524	17.4572	0.0	0.0	1	1.1089547	20.280024646868068	220.0	3	1.11	0.95				
	84	2	12.000399999999999	16.9252	0.0	0.0	1	1.1090726	20.280928453170084	220.0	3	1.11	0.95				
	85	2	7.5924000000000005	12.927600000000004	0.0	0.0	1	1.1017195	17.367343769806748	220.0	3	1.11	0.95				
	86	2	7.5924000000000005	12.6616	0.0	0.0	1	1.1016369	17.363491547191096	220.0	3	1.11	0.95				
	87	1	8.4284	12.3272	0.0	0.0	1	1.083977501656415	15.009741649053861	220.0	3	1.11	0.95				
	88	1	0.0	0.0	0.0	0.0	1	1.083984138310636	15.01763718688888	220.0	3	1.11	0.95				
	89	1	0.0	0.0	0.0	0.0	1	1.1017877082646517	21.484815930119122	220.0	3	1.11	0.95				
	90	1	0.0	0.0	0.0	0.0	1	1.1050039358372399	19.27778804612919	220.0	3	1.11	0.95				
	91	1	0.0	0.0	0.0	0.0	1	1.1040268304447312	21.228264052279535	220.0	3	1.11	0.95				
	92	1	0.0	0.0	0.0	0.0	1	1.0236103563995764	9.25549546767945	400.0	3	1.05	0.95				
	93	2	7.5924000000000005	12.456400000000002	0.0	0.0	1	1.1056302	20.788531834794725	220.0	3	1.11	0.95				
	94	1	0.0	0.0	0.0	0.0	1	1.105597945086109	20.786048226647424	220.0	3	1.11	0.95				
	95	2	5.2364	6.194	0.0	0.0	1	1.1075265	21.97938355789549	220.0	3	1.11	0.95				
	96	1	0.0	0.0	0.0	0.0	1	1.1075298331381878	21.975949243453964	220.0	3	1.11	0.95				
	97	2	6.604399999999999	3.9976000000000003	0.0	0.0	1	1.0967425	19.93363191130028	220.0	3	1.11	0.95				
	98	1	0.0	0.0	0.0	0.0	1	1.0234636905215457	11.677002824927014	400.0	3	1.05	0.95				
	99	1	0.0	0.0	0.0	0.0	1	1.0235502161427477	11.677550585805964	400.0	3	1.05	0.95				
	100	1	0.0	0.0	0.0	0.0	1	1.030882058471953	8.509082519812878	400.0	3	1.05	0.95				
	101	1	0.0	0.0	0.0	0.0	1	1.0309290347059623	8.48939070230683	400.0	3	1.05	0.95				
	102	1	0.0	0.0	0.0	0.0	1	1.1036393516605034	21.736377227546544	220.0	3	1.11	0.95				
	103	2	13.7484	18.0576	0.0	0.0	1	1.1067084	18.10384260163009	220.0	3	1.11	0.95				
	104	2	25.596799999999998	35.043600000000005	0.0	0.0	1	1.106757	18.116722525490808	220.0	3	1.11	0.95				
	105	2	25.672800000000002	47.842000000000006	0.0	0.0	1	1.0166743	9.668603284043815	400.0	3	1.05	0.95				
	106	1	0.0	0.0	0.0	0.0	1	1.0167793539316967	9.680411290885555	400.0	3	1.05	0.95				
	107	1	0.0	0.0	0.0	0.0	1	1.0784619268410771	9.704779550724412	220.0	3	1.11	0.95				
	108	1	0.0	0.0	0.0	0.0	1	1.080045690759065	9.929924946105267	220.0	3	1.11	0.95				
	109	2	0.76	16.9936	0.0	0.0	1	1.11	25.192137088898168	220.0	3	1.11	0.95				
	110	2	0.76	16.8568	0.0	0.0	1	1.11	25.195822981452114	220.0	3	1.11	0.95				
	111	2	20.132399999999997	13.68	0.0	0.0	1	1.1066085	11.067229877637894	220.0	4	1.11	0.95				
	112	1	0.0	0.0	0.0	0.0	1	1.106545124648422	11.060459265534016	220.0	4	1.11	0.95				
	113	1	0.0	0.0	0.0	0.0	1	1.065298984621617	6.7222132208279115	220.0	4	1.11	0.95				
	114	1	0.0	0.0	0.0	0.0	1	1.076823838916576	7.936206200817351	220.0	4	1.11	0.95				
	115	1	0.0	0.0	0.0	0.0	1	0.9944112269089864	8.191568991462299	400.0	4	1.05	0.95				
	116	1	0.0	0.0	0.0	0.0	1	0.99445930883878	8.191569978148683	400.0	4	1.05	0.95				
	117	1	0.0	0.0	0.0	0.0	1	1.0819626245412257	5.08267434242715	220.0	4	1.11	0.95				
	118	1	0.0	0.0	0.0	0.0	1	1.0697462886043805	2.6308018043721173	220.0	4	1.11	0.95				
	119	1	0.0	0.0	0.0	0.0	1	1.0697462886043805	2.6308018043721173	220.0	4	1.11	0.95				
	120	1	0.0	0.0	0.0	0.0	1	1.0549253871296038	2.609132864543705	220.0	4	1.11	0.95				
	121	1	0.0	0.0	0.0	0.0	1	1.0718076123440599	5.533411845310345	220.0	4	1.11	0.95				
	122	1	0.0	0.0	0.0	0.0	1	1.0718076123440599	5.533411845310345	220.0	4	1.11	0.95				
	123	2	4.180000000000001	5.32	0.0	0.0	1	1.1096575	10.218604993374381	220.0	4	1.11	0.95				
	124	2	6.680399999999999	12.920000000000002	0.0	0.0	1	1.1096796	10.221512568930528	220.0	4	1.11	0.95				
	125	2	27.132	13.908000000000001	0.0	0.0	1	1.1062235	4.7516305215669075	220.0	4	1.11	0.95				
	126	1	19.2128	12.084	0.0	0.0	1	1.1060745606175624	4.76018706585497	220.0	4	1.11	0.95				
	127	2	19.5396	11.628	0.0	0.0	1	1.0330077	10.161985475336124	400.0	4	1.05	0.95				
	128	1	0.0	0.0	0.0	0.0	1	1.0329554938607652	10.151677765927598	400.0	4	1.05	0.95				
	129	1	0.0	0.0	0.0	0.0	1	1.0514804546793357	3.7682189272182156	220.0	4	1.11	0.95				
	130	1	0.0	0.0	0.0	0.0	1	1.039678288472452	3.8216496035225305	220.0	4	1.11	0.95				
	131	2	52.1892	53.19999999999999	0.0	0.0	1	1.0993161	10.741173043820442	220.0	4	1.11	0.95				
	132	2	25.080000000000002	34.2	0.0	0.0	1	1.0994336	10.72817040208433	220.0	4	1.11	0.95				
	133	1	0.0	0.0	0.0	0.0	1	0.9959545168751655	9.907238269241516	400.0	4	1.05	0.95				
	134	1	0.0	0.0	0.0	0.0	1	0.9959356177788388	9.91033091781583	400.0	4	1.05	0.95				
	135	1	0.0	0.0	0.0	0.0	1	1.069710463947789	2.605831959544378	220.0	4	1.11	0.95				
	136	1	0.0	0.0	0.0	0.0	1	1.069710463947789	2.605831959544378	220.0	4	1.11	0.95				
	137	1	0.0	0.0	0.0	0.0	1	1.0142532327409686	8.99673663595332	400.0	4	1.05	0.95				
	138	1	0.0	0.0	0.0	0.0	1	1.0142532327409686	8.99673663595332	400.0	4	1.05	0.95				
	139	2	25.232	17.176	0.0	0.0	1	1.11	10.21963103083906	220.0	4	1.11	0.95				
	140	2	22.2148	14.896	0.0	0.0	1	1.1099933	10.21446736859321	220.0	4	1.11	0.95				
	141	1	0.0	0.0	0.0	0.0	1	1.0544610426923247	1.9811727146089366	220.0	4	1.11	0.95				
	142	1	0.0	0.0	0.0	0.0	1	1.0667832259709902	2.48529494009384	220.0	4	1.11	0.95				
	143	1	0.0	0.0	0.0	0.0	1	1.0795050779427238	4.462018959593192	220.0	4	1.11	0.95				
	144	1	0.0	0.0	0.0	0.0	1	1.0794359055538043	4.4607561297429905	220.0	4	1.11	0.95				
	145	1	0.0	0.0	0.0	0.0	1	0.9799313416289817	5.692723911408391	400.0	4	1.05	0.95				
	146	1	0.0	0.0	0.0	0.0	1	0.9799313416289817	5.692723911408391	400.0	4	1.05	0.95				
	147	1	0.0	0.0	0.0	0.0	1	1.0494722137178845	5.180364937666364	220.0	4	1.11	0.95				
	148	1	0.0	0.0	0.0	0.0	1	1.0495269021409415	5.183827604938691	220.0	4	1.11	0.95				
	149	1	0.0	0.0	0.0	0.0	1	1.0756891962279294	4.0035718070416335	220.0	4	1.11	0.95				
	150	1	0.0	0.0	0.0	0.0	1	1.0688194864923448	7.031605916908359	220.0	4	1.11	0.95				
	151	1	0.0	0.0	0.0	0.0	1	1.0688230545267887	7.02812661292659	220.0	4	1.11	0.95				
	152	1	0.0	0.0	0.0	0.0	1	1.0702995330298135	7.756568525172145	220.0	4	1.11	0.95				
	153	1	0.0	0.0	0.0	0.0	1	1.0702995330298135	7.756568525172145	220.0	4	1.11	0.95				
	154	1	0.0	0.0	0.0	0.0	1	1.0334354127004222	3.9851445726217305	220.0	4	1.11	0.95				
	155	1	0.0	0.0	0.0	0.0	1	1.0595696654884768	5.0497070852149815	220.0	5	1.11	0.95				
	156	1	0.0	0.0	0.0	0.0	1	1.1121811085552622	5.922670210690143	220.0	5	1.11	0.95				
	157	1	0.0	0.0	0.0	0.0	1	1.0267576813025339	7.490419403020622	400.0	5	1.05	0.95				
	158	1	0.0	0.0	0.0	0.0	1	1.0267456764744842	7.4893890178177704	400.0	5	1.05	0.95				
	159	1	0.0	0.0	0.0	0.0	1	1.0312209910634056	6.501217028663451	400.0	5	1.05	0.95				
	160	1	0.0	0.0	0.0	0.0	1	1.0312502419991336	6.504190436624778	400.0	5	1.05	0.95				
	161	1	0.0	0.0	0.0	0.0	1	1.0586016215011675	3.646401102418958	220.0	5	1.11	0.95				
	162	1	0.0	0.0	0.0	0.0	1	1.058604859213115	3.646807446151024	220.0	5	1.11	0.95				
	163	1	0.0	0.0	0.0	0.0	1	1.0956294935973052	4.494625743193085	220.0	5	1.11	0.95				
	164	1	0.0	0.0	0.0	0.0	1	1.0956040103362876	4.492847937415981	220.0	5	1.11	0.95				
	165	1	0.0	0.0	0.0	0.0	1	1.0137738650492718	3.348393778692084	400.0	5	1.05	0.95				
	166	1	0.0	0.0	0.0	0.0	1	1.0724327079224778	5.566608323100993	220.0	5	1.11	0.95				
	167	1	0.0	0.0	0.0	0.0	1	1.0724786192277873	5.567782400668008	220.0	5	1.11	0.95				
	168	1	0.0	0.0	0.0	0.0	1	1.0334556110085724	4.946445434527082	400.0	5	1.05	0.95				
	169	1	0.0	0.0	0.0	0.0	1	1.0334415381786848	4.940259330356635	400.0	5	1.05	0.95				
	170	1	0.0	0.0	0.0	0.0	1	1.059752853782928	3.571745363558463	220.0	5	1.11	0.95				
	171	1	0.0	0.0	0.0	0.0	1	1.059786204550793	3.573600391430319	220.0	5	1.11	0.95				
	172	1	0.0	0.0	0.0	0.0	1	1.0669778114883082	3.919921348083044	220.0	5	1.11	0.95				
	173	1	0.0	0.0	0.0	0.0	1	1.0669392799082285	3.92071966116532	220.0	5	1.11	0.95				
	174	1	0.0	0.0	0.0	0.0	1	1.0641151722849824	5.364030521029823	220.0	5	1.11	0.95				
	175	1	0.0	0.0	0.0	0.0	1	1.0640954887103582	5.359449090800544	220.0	5	1.11	0.95				
	176	2	0.0	30.400000000000006	0.0	0.0	1	1.0312974	8.79909964147298	400.0	5	1.05	0.95				
	177	2	0.0	30.400000000000006	0.0	0.0	1	1.0314652	8.795347157552374	400.0	5	1.05	0.95				
	178	1	0.0	0.0	0.0	0.0	1	1.0811957750356205	4.241376156441748	220.0	5	1.11	0.95				
	179	1	0.0	0.0	0.0	0.0	1	1.0812319335156009	4.244507668830307	220.0	5	1.11	0.95				
	180	2	258.286	37.696000000000005	0.0	0.0	2	1.0088011	7.580419929883328	400.0	6	1.05	0.95				
	181	2	0.0	0.0	0.0	0.0	3	1.107243	15.748256932578881	220.0	6	1.11	0.95				
	182	2	0.0	0.0	0.0	0.0	5	0.99674384	10.20705247982106	400.0	6	1.05	0.95				
	183	1	114.00000000000001	0.0	0.0	0.0	3	1.0517653088187784	9.575581242332724	400.0	6	1.05	0.95				
	184	2	241.17839999999995	38.228	0.0	0.0	2	1.0968373	18.308118571675674	220.0	6	1.11	0.95				
	185	2	275.4468	27.892000000000007	0.0	0.0	2	1.0079864	6.967196535300733	400.0	6	1.05	0.95				
	186	2	25.330799999999996	0.76	0.0	0.0	5	1.1085323	4.647926271787596	220.0	6	1.11	0.95				
	187	1	5.4112	1.1400000000000001	0.0	0.0	1	1.0774299789640562	0.9823919318564241	110.0	1	1.12	0.95				
	188	1	5.7988	0.76	0.0	0.0	1	1.0635380382528759	-0.8118333627486146	110.0	1	1.12	0.95				
	189	1	7.4252	6.612	0.0	0.0	1	1.0198446480312933	-2.351973814160481	110.0	1	1.12	0.95				
	190	1	4.6512	1.1400000000000001	0.0	0.0	1	1.1100532160042313	6.3756715875621675	110.0	1	1.12	0.95				
	191	1	4.6512	1.216	0.0	0.0	1	1.0881938606465495	5.831314504237264	110.0	1	1.12	0.95				
	192	2	23.2256	9.120000000000001	0.0	0.0	1	1.12	4.2359414186574815	110.0	1	1.12	0.95				
	193	1	11.6128	2.2800000000000002	0.0	0.0	1	1.1189715367447197	4.091420967605746	110.0	1	1.12	0.95				
	194	1	0.0	0.0	0.0	0.0	1	1.1190402081972302	4.117920489475974	110.0	1	1.12	0.95				
	195	1	6.1864	1.52	0.0	0.0	1	1.0838473857615918	1.061434218045961	110.0	1	1.12	0.95				
	196	2	5.2592	1.1400000000000001	0.0	0.0	1	1.0192036	-0.16243338889804407	110.0	1	1.12	0.95				
	197	1	5.2592	1.1400000000000001	0.0	0.0	1	1.0789410127193122	2.987217206308281	110.0	1	1.12	0.95				
	198	2	9.3632	1.292	0.0	0.0	1	1.0753335	0.5194445014892457	110.0	1	1.12	0.95				
	199	1	1.0868	0.38	0.0	0.0	1	1.1104635093232142	5.371773979984567	110.0	1	1.12	0.95				
	200	1	0.8208	0.38	0.0	0.0	1	1.1053445857223916	-0.1550334297553213	110.0	1	1.12	0.95				
...
];
%% generator data
%    bus    Pg    Qg    Qmax    Qmin    Vg    mBase    status    Pmax    Pmin    Pc1    Pc2    Qc1min    Qc1max    Qc2min    Qc2max    ramp_agc    ramp_10    ramp_30    ramp_q    apf
mpc.gen = [
	10	400.0	86.08211770544233	120.0	0.0	1.0	168.0	1	400.0	0.0	0.0	0.0	0.0	0.0	0.0	0.0	0.0	0.0	0.0	0.0	0.0				
	16	720.0	205.73345222238274	440.00000000000006	-40.0	1.0	823.0	1	720.0	0.0	0.0	0.0	0.0	0.0	0.0	0.0	0.0	0.0	0.0	0.0	0.0				
	17	1080.0	235.20058753431402	660.0	-60.0	1.0	1234.0	1	1080.0	0.0	0.0	0.0	0.0	0.0	0.0	0.0	0.0	0.0	0.0	0.0	0.0				
	18	-3569.1355250244724	545.3248698885112	1540.0	-140.0	1.0	2879.0	1	2520.0	0.0	0.0	0.0	0.0	0.0	0.0	0.0	0.0	0.0	0.0	0.0	0.0				
	29	70.0	194.1874122184073	240.0	0.0	1.0	511.0	1	400.0	0.0	0.0	0.0	0.0	0.0	0.0	0.0	0.0	0.0	0.0	0.0	0.0				
	30	70.0	107.2083260860201	240.0	0.0	1.0	511.0	1	800.0	0.0	0.0	0.0	0.0	0.0	0.0	0.0	0.0	0.0	0.0	0.0	0.0				
	31	1000.0	-121.37018458429507	350.0	0.0	1.0	420.0	1	1000.0	0.0	0.0	0.0	0.0	0.0	0.0	0.0	0.0	0.0	0.0	0.0	0.0				
	41	200.0	-11.736254272358309	120.0	0.0	1.0	241.0	1	200.0	0.0	0.0	0.0	0.0	0.0	0.0	0.0	0.0	0.0	0.0	0.0	0.0				
	42	70.0	-14.887317018893379	120.0	0.0	1.0	241.0	1	409.99999999999994	0.0	0.0	0.0	0.0	0.0	0.0	0.0	0.0	0.0	0.0	0.0	0.0				
	43	409.99999999999994	-22.1248704761473	240.0	0.0	1.0	482.0	1	409.99999999999994	0.0	0.0	0.0	0.0	0.0	0.0	0.0	0.0	0.0	0.0	0.0	0.0				
	44	409.99999999999994	-38.360450646432206	240.0	0.0	1.0	482.0	1	409.99999999999994	0.0	0.0	0.0	0.0	0.0	0.0	0.0	0.0	0.0	0.0	0.0	0.0				
	45	42.2	-12.451831097418008	21.0	0.0	1.0	49.0	1	42.2	0.0	0.0	0.0	0.0	0.0	0.0	0.0	0.0	0.0	0.0	0.0	0.0				
	63	650.0	82.58370507340777	302.0	0.0	1.0	473.0	1	650.0	0.0	0.0	0.0	0.0	0.0	0.0	0.0	0.0	0.0	0.0	0.0	0.0				
	64	450.0	92.65204547884109	311.0	2.0	1.0	475.0	1	450.0	0.0	0.0	0.0	0.0	0.0	0.0	0.0	0.0	0.0	0.0	0.0	0.0				
	67	750.0	261.09646860515596	449.0	0.0	1.0	864.0	1	750.0	0.0	0.0	0.0	0.0	0.0	0.0	0.0	0.0	0.0	0.0	0.0	0.0				
	83	225.0	-105.56449047258842	190.0	-89.0	1.0	239.0	1	225.0	0.0	0.0	0.0	0.0	0.0	0.0	0.0	0.0	0.0	0.0	0.0	0.0				
	84	225.0	161.4724942738746	190.0	-89.0	1.0	251.0	1	225.0	0.0	0.0	0.0	0.0	0.0	0.0	0.0	0.0	0.0	0.0	0.0	0.0				
	85	120.0	130.3185304467717	125.0	-50.0	1.0	133.0	1	120.0	0.0	0.0	0.0	0.0	0.0	0.0	0.0	0.0	0.0	0.0	0.0	0.0				
	86	120.0	7.797311882602257	125.0	-50.0	1.0	133.0	1	120.0	0.0	0.0	0.0	0.0	0.0	0.0	0.0	0.0	0.0	0.0	0.0	0.0				
	93	120.0	68.71096096358042	90.0	5.0	1.0	123.0	1	120.0	0.0	0.0	0.0	0.0	0.0	0.0	0.0	0.0	0.0	0.0	0.0	0.0				
	95	110.00000000000001	3.7017601145048276	68.0	27.0	1.0	105.0	1	110.00000000000001	0.0	0.0	0.0	0.0	0.0	0.0	0.0	0.0	0.0	0.0	0.0	0.0				
	97	87.6	28.37105208579703	68.0	27.0	1.0	105.0	1	87.6	0.0	0.0	0.0	0.0	0.0	0.0	0.0	0.0	0.0	0.0	0.0	0.0				
	103	160.0	110.75475656457203	177.0	-82.0	1.0	239.0	1	400.0	0.0	0.0	0.0	0.0	0.0	0.0	0.0	0.0	0.0	0.0	0.0	0.0				
	104	225.0	96.19504011769293	379.0	-177.0	1.0	490.0	1	225.0	0.0	0.0	0.0	0.0	0.0	0.0	0.0	0.0	0.0	0.0	0.0	0.0				
	105	430.0	-155.78784688632666	353.0	-165.0	1.0	502.0	1	430.0	0.0	0.0	0.0	0.0	0.0	0.0	0.0	0.0	0.0	0.0	0.0	0.0				
	109	250.0	8.902455195836069	65.0	0.0	1.0	277.0	1	250.0	0.0	0.0	0.0	0.0	0.0	0.0	0.0	0.0	0.0	0.0	0.0	0.0				
	110	250.0	9.127620879678915	65.0	0.0	1.0	280.0	1	250.0	0.0	0.0	0.0	0.0	0.0	0.0	0.0	0.0	0.0	0.0	0.0	0.0				
	111	360.0	42.486919998265876	270.0	0.0	1.0	401.0	1	360.0	0.0	0.0	0.0	0.0	0.0	0.0	0.0	0.0	0.0	0.0	0.0	0.0				
	123	20.0	8.486657679541205	40.0	0.0	1.0	98.0	1	110.00000000000001	0.0	0.0	0.0	0.0	0.0	0.0	0.0	0.0	0.0	0.0	0.0	0.0				
	124	125.0	39.91908965329106	90.0	0.0	1.0	132.0	1	125.0	0.0	0.0	0.0	0.0	0.0	0.0	0.0	0.0	0.0	0.0	0.0	0.0				
	125	70.0	322.6692706562876	360.0	0.0	1.0	654.0	1	860.0	0.0	0.0	0.0	0.0	0.0	0.0	0.0	0.0	0.0	0.0	0.0	0.0				
	127	690.0	-38.14403603044192	360.0	0.0	1.0	540.0	1	690.0	0.0	0.0	0.0	0.0	0.0	0.0	0.0	0.0	0.0	0.0	0.0	0.0				
	131	645.377	9.842370191122201	360.0	0.0	1.0	696.0	1	1060.0	0.0	0.0	0.0	0.0	0.0	0.0	0.0	0.0	0.0	0.0	0.0	0.0				
	132	70.0	250.13986429142236	480.0	0.0	1.0	732.0	1	600.0	0.0	0.0	0.0	0.0	0.0	0.0	0.0	0.0	0.0	0.0	0.0	0.0				
	139	408.6700000000001	108.18144319711843	360.0	0.0	1.0	714.0	1	600.0	0.0	0.0	0.0	0.0	0.0	0.0	0.0	0.0	0.0	0.0	0.0	0.0				
	140	200.0	72.18795391818351	120.0	0.0	1.0	240.0	1	200.0	0.0	0.0	0.0	0.0	0.0	0.0	0.0	0.0	0.0	0.0	0.0	0.0				
	176	600.0	-155.28328452967557	220.00000000000003	-120.0	1.0	430.0	1	600.0	0.0	0.0	0.0	0.0	0.0	0.0	0.0	0.0	0.0	0.0	0.0	0.0				
	177	200.0	165.20876977110012	220.00000000000003	-120.0	1.0	430.0	1	200.0	0.0	0.0	0.0	0.0	0.0	0.0	0.0	0.0	0.0	0.0	0.0	0.0				
	180	0.0	-6.57866239677157	99999.0	-99999.0	1.0	7485.0	1	0.0	0.0	0.0	0.0	0.0	0.0	0.0	0.0	0.0	0.0	0.0	0.0	0.0				
	181	175.0	23.628008106033935	99999.0	-99999.0	1.0	210.0	1	175.0	0.0	0.0	0.0	0.0	0.0	0.0	0.0	0.0	0.0	0.0	0.0	0.0				
	182	307.59	9.840274495276	99999.0	-99999.0	1.0	13465.0	1	307.59	0.0	0.0	0.0	0.0	0.0	0.0	0.0	0.0	0.0	0.0	0.0	0.0				
	184	0.0	39.05997526462639	99999.0	-99999.0	1.0	8353.0	1	0.0	0.0	0.0	0.0	0.0	0.0	0.0	0.0	0.0	0.0	0.0	0.0	0.0				
	185	0.0	-10.65201214183788	99999.0	-99999.0	1.0	14254.0	1	0.0	0.0	0.0	0.0	0.0	0.0	0.0	0.0	0.0	0.0	0.0	0.0	0.0				
	186	0.0	30.85596609020355	99999.0	-99999.0	1.0	7401.0	1	0.0	0.0	0.0	0.0	0.0	0.0	0.0	0.0	0.0	0.0	0.0	0.0	0.0				
	192	95.0	12.520900439489438	50.0	0.0	1.0	114.0	1	95.0	0.0	0.0	0.0	0.0	0.0	0.0	0.0	0.0	0.0	0.0	0.0	0.0				
	196	0.9000000000000001	-0.40142515330263295	1.0	0.0	1.0	1.0	1	0.9000000000000001	0.0	0.0	0.0	0.0	0.0	0.0	0.0	0.0	0.0	0.0	0.0	0.0				
	198	0.8	-4.273674157182623	1.0	0.0	1.0	1.0	1	0.8	0.0	0.0	0.0	0.0	0.0	0.0	0.0	0.0	0.0	0.0	0.0	0.0				
	205	15.0	-9.396260355648522	10.0	0.0	1.0	18.0	1	15.0	0.0	0.0	0.0	0.0	0.0	0.0	0.0	0.0	0.0	0.0	0.0	0.0				
	213	11.0	-8.523546863483134	8.0	0.0	1.0	13.0	1	11.0	0.0	0.0	0.0	0.0	0.0	0.0	0.0	0.0	0.0	0.0	0.0	0.0				
	264	2.5	-3.0960417365714177	2.0	0.0	1.0	3.0	1	2.5	0.0	0.0	0.0	0.0	0.0	0.0	0.0	0.0	0.0	0.0	0.0	0.0				
	269	6.0	0.1032222947204548	5.0	0.0	1.0	7.0	1	6.0	0.0	0.0	0.0	0.0	0.0	0.0	0.0	0.0	0.0	0.0	0.0	0.0				
	277	70.0	20.31934218073279	42.0	0.0	1.0	84.0	1	70.0	0.0	0.0	0.0	0.0	0.0	0.0	0.0	0.0	0.0	0.0	0.0	0.0				
	278	60.0	-13.804788659445125	40.0	0.0	1.0	72.0	1	60.0	0.0	0.0	0.0	0.0	0.0	0.0	0.0	0.0	0.0	0.0	0.0	0.0				
	279	60.0	4.438577797878916	40.0	0.0	1.0	72.0	1	60.0	0.0	0.0	0.0	0.0	0.0	0.0	0.0	0.0	0.0	0.0	0.0	0.0				
	281	120.0	20.53529657657994	90.0	0.0	1.0	144.0	1	120.0	0.0	0.0	0.0	0.0	0.0	0.0	0.0	0.0	0.0	0.0	0.0	0.0				
	282	40.0	2.826260532844675	40.0	0.0	1.0	48.0	1	40.0	0.0	0.0	0.0	0.0	0.0	0.0	0.0	0.0	0.0	0.0	0.0	0.0				
	289	2.5	-5.871239042852984	3.0	0.0	1.0	3.0	1	2.5	0.0	0.0	0.0	0.0	0.0	0.0	0.0	0.0	0.0	0.0	0.0	0.0				
	294	2.0	-12.50406417094681	1.0	0.0	1.0	2.0	1	2.0	0.0	0.0	0.0	0.0	0.0	0.0	0.0	0.0	0.0	0.0	0.0	0.0				
	314	1.5	-0.7967433511327896	1.0	0.0	1.0	2.0	1	1.5	0.0	0.0	0.0	0.0	0.0	0.0	0.0	0.0	0.0	0.0	0.0	0.0				
	328	44.0	5.503196227986152	21.0	0.0	1.0	53.0	1	44.0	0.0	0.0	0.0	0.0	0.0	0.0	0.0	0.0	0.0	0.0	0.0	0.0				
	329	44.0	11.785811707366816	21.0	0.0	1.0	53.0	1	44.0	0.0	0.0	0.0	0.0	0.0	0.0	0.0	0.0	0.0	0.0	0.0	0.0				
	330	44.0	-14.941689645326766	21.0	0.0	1.0	53.0	1	44.0	0.0	0.0	0.0	0.0	0.0	0.0	0.0	0.0	0.0	0.0	0.0	0.0				
	331	43.0	9.734140504300601	21.0	0.0	1.0	52.0	1	43.0	0.0	0.0	0.0	0.0	0.0	0.0	0.0	0.0	0.0	0.0	0.0	0.0				
	334	1.5	-5.61432030036779	1.0	0.0	1.0	2.0	1	1.5	0.0	0.0	0.0	0.0	0.0	0.0	0.0	0.0	0.0	0.0	0.0	0.0				
	346	200.0	16.422299087786467	120.0	0.0	1.0	180.0	1	200.0	0.0	0.0	0.0	0.0	0.0	0.0	0.0	0.0	0.0	0.0	0.0	0.0				
	347	10.0	2.1101244836161817	15.0	0.0	1.0	12.0	1	10.0	0.0	0.0	0.0	0.0	0.0	0.0	0.0	0.0	0.0	0.0	0.0	0.0				
	359	1.5	-2.328940464755655	1.0	0.0	1.0	2.0	1	1.5	0.0	0.0	0.0	0.0	0.0	0.0	0.0	0.0	0.0	0.0	0.0	0.0				
	365	5.1	-9.2259362929544	3.0	0.0	1.0	6.0	1	5.1	0.0	0.0	0.0	0.0	0.0	0.0	0.0	0.0	0.0	0.0	0.0	0.0				
	382	8.0	-2.4036011604485137	5.0	0.0	1.0	10.0	1	8.0	0.0	0.0	0.0	0.0	0.0	0.0	0.0	0.0	0.0	0.0	0.0	0.0				
	383	8.0	-14.269211219699582	5.0	0.0	1.0	10.0	1	8.0	0.0	0.0	0.0	0.0	0.0	0.0	0.0	0.0	0.0	0.0	0.0	0.0				
	385	6.0	-10.666426520645578	4.0	0.0	1.0	7.0	1	6.0	0.0	0.0	0.0	0.0	0.0	0.0	0.0	0.0	0.0	0.0	0.0	0.0				
	390	4.5	-1.236313559555155	3.0	0.0	1.0	5.0	1	4.5	0.0	0.0	0.0	0.0	0.0	0.0	0.0	0.0	0.0	0.0	0.0	0.0				
	395	10.0	-1.0030007910390395	8.0	0.0	1.0	12.0	1	10.0	0.0	0.0	0.0	0.0	0.0	0.0	0.0	0.0	0.0	0.0	0.0	0.0				
	404	3.0	-4.011875663812388	3.0	0.0	1.0	4.0	1	3.0	0.0	0.0	0.0	0.0	0.0	0.0	0.0	0.0	0.0	0.0	0.0	0.0				
	426	3.2	-11.781011249542129	2.0	0.0	1.0	4.0	1	3.2	0.0	0.0	0.0	0.0	0.0	0.0	0.0	0.0	0.0	0.0	0.0	0.0				
	444	1.0	-12.27525409389643	1.0	0.0	1.0	1.0	1	1.0	0.0	0.0	0.0	0.0	0.0	0.0	0.0	0.0	0.0	0.0	0.0	0.0				
	451	4.5	-20.224109546498955	3.0	0.0	1.0	5.0	1	4.5	0.0	0.0	0.0	0.0	0.0	0.0	0.0	0.0	0.0	0.0	0.0	0.0				
	482	1.0	21.053823015392123	1.0	0.0	1.0	1.0	1	1.0	0.0	0.0	0.0	0.0	0.0	0.0	0.0	0.0	0.0	0.0	0.0	0.0				
	492	2.0	-4.254000914983912	1.0	0.0	1.0	2.0	1	2.0	0.0	0.0	0.0	0.0	0.0	0.0	0.0	0.0	0.0	0.0	0.0	0.0				
	493	234.0	80.44807648986384	130.0	0.0	1.0	281.0	1	234.0	0.0	0.0	0.0	0.0	0.0	0.0	0.0	0.0	0.0	0.0	0.0	0.0				
	494	234.0	90.50694337020424	130.0	0.0	1.0	281.0	1	234.0	0.0	0.0	0.0	0.0	0.0	0.0	0.0	0.0	0.0	0.0	0.0	0.0				
	514	114.99999999999999	51.706038113706455	90.0	0.0	1.0	138.0	1	114.99999999999999	0.0	0.0	0.0	0.0	0.0	0.0	0.0	0.0	0.0	0.0	0.0	0.0				
	515	114.99999999999999	34.81589662523096	90.0	0.0	1.0	138.0	1	114.99999999999999	0.0	0.0	0.0	0.0	0.0	0.0	0.0	0.0	0.0	0.0	0.0	0.0				
	525	6.0	-3.0398993323749366	4.0	0.0	1.0	7.0	1	6.0	0.0	0.0	0.0	0.0	0.0	0.0	0.0	0.0	0.0	0.0	0.0	0.0				
	536	6.0	-5.538469450937946	6.0	0.0	1.0	7.0	1	6.0	0.0	0.0	0.0	0.0	0.0	0.0	0.0	0.0	0.0	0.0	0.0	0.0				
	537	3.5000000000000004	-2.804127444895898	3.0	0.0	1.0	4.0	1	3.5000000000000004	0.0	0.0	0.0	0.0	0.0	0.0	0.0	0.0	0.0	0.0	0.0	0.0				
	556	2.7	-4.080297252465774	1.0	0.0	1.0	3.0	1	2.7	0.0	0.0	0.0	0.0	0.0	0.0	0.0	0.0	0.0	0.0	0.0	0.0				
	580	1.6	-1.4321435627095602	1.0	0.0	1.0	2.0	1	1.6	0.0	0.0	0.0	0.0	0.0	0.0	0.0	0.0	0.0	0.0	0.0	0.0				
	584	2.7	0.17233133097706266	2.0	0.0	1.0	3.0	1	2.7	0.0	0.0	0.0	0.0	0.0	0.0	0.0	0.0	0.0	0.0	0.0	0.0				
	585	4.0	-1.4715505509833462	2.0	0.0	1.0	5.0	1	4.0	0.0	0.0	0.0	0.0	0.0	0.0	0.0	0.0	0.0	0.0	0.0	0.0				
	607	0.8	-2.2114431841106446	0.0	0.0	1.0	1.0	1	0.8	0.0	0.0	0.0	0.0	0.0	0.0	0.0	0.0	0.0	0.0	0.0	0.0				
	612	152.955	56.5863104597056	120.0	0.0	1.0	256.0	1	200.0	0.0	0.0	0.0	0.0	0.0	0.0	0.0	0.0	0.0	0.0	0.0	0.0				
	613	200.0	64.84803092942663	120.0	0.0	1.0	256.0	1	200.0	0.0	0.0	0.0	0.0	0.0	0.0	0.0	0.0	0.0	0.0	0.0	0.0				
	615	1.4	-15.037446506394522	1.0	0.0	1.0	2.0	1	1.4	0.0	0.0	0.0	0.0	0.0	0.0	0.0	0.0	0.0	0.0	0.0	0.0				
	623	7.6	-0.10011016009314509	5.0	0.0	1.0	9.0	1	7.6	0.0	0.0	0.0	0.0	0.0	0.0	0.0	0.0	0.0	0.0	0.0	0.0				
	639	9.6	-10.958578923476198	4.0	0.0	1.0	12.0	1	9.6	0.0	0.0	0.0	0.0	0.0	0.0	0.0	0.0	0.0	0.0	0.0	0.0				
	651	4.7	-8.602099020283495	2.0	0.0	1.0	6.0	1	4.7	0.0	0.0	0.0	0.0	0.0	0.0	0.0	0.0	0.0	0.0	0.0	0.0				
	654	1.4	-8.41865086227789	1.0	0.0	1.0	2.0	1	1.4	0.0	0.0	0.0	0.0	0.0	0.0	0.0	0.0	0.0	0.0	0.0	0.0				
	664	6.2	-3.4321718921314637	6.0	0.0	1.0	7.0	1	6.2	0.0	0.0	0.0	0.0	0.0	0.0	0.0	0.0	0.0	0.0	0.0	0.0				
	670	2.7	-4.520943830361193	2.0	0.0	1.0	3.0	1	2.7	0.0	0.0	0.0	0.0	0.0	0.0	0.0	0.0	0.0	0.0	0.0	0.0				
	674	1.0	-5.425380656680503	0.0	0.0	1.0	1.0	1	1.0	0.0	0.0	0.0	0.0	0.0	0.0	0.0	0.0	0.0	0.0	0.0	0.0				
	688	70.0	10.13623062402429	120.0	0.0	1.0	242.0	1	202.0	0.0	0.0	0.0	0.0	0.0	0.0	0.0	0.0	0.0	0.0	0.0	0.0				
	692	1.4	-7.263682894350934	1.0	0.0	1.0	2.0	1	1.4	0.0	0.0	0.0	0.0	0.0	0.0	0.0	0.0	0.0	0.0	0.0	0.0				
	699	3.8	-9.865834950720522	2.0	0.0	1.0	5.0	1	3.8	0.0	0.0	0.0	0.0	0.0	0.0	0.0	0.0	0.0	0.0	0.0	0.0				
	712	1.2	-12.83948550031154	1.0	0.0	1.0	1.0	1	1.2	0.0	0.0	0.0	0.0	0.0	0.0	0.0	0.0	0.0	0.0	0.0	0.0				
	730	6.9	-5.642868605703742	3.0	0.0	1.0	8.0	1	6.9	0.0	0.0	0.0	0.0	0.0	0.0	0.0	0.0	0.0	0.0	0.0	0.0				
	732	1.1	-6.492339652275021	1.0	0.0	1.0	1.0	1	1.1	0.0	0.0	0.0	0.0	0.0	0.0	0.0	0.0	0.0	0.0	0.0	0.0				
	735	4.1	-4.629890466243384	2.0	0.0	1.0	5.0	1	4.1	0.0	0.0	0.0	0.0	0.0	0.0	0.0	0.0	0.0	0.0	0.0	0.0				
	740	4.0	-2.9973058975426743	1.0	0.0	1.0	5.0	1	4.0	0.0	0.0	0.0	0.0	0.0	0.0	0.0	0.0	0.0	0.0	0.0	0.0				
	744	134.0	-9.270325711354467	60.0	0.0	1.0	161.0	1	134.0	0.0	0.0	0.0	0.0	0.0	0.0	0.0	0.0	0.0	0.0	0.0	0.0				
	754	80.0	-13.111693099978533	30.0	0.0	1.0	54.0	1	80.0	0.0	0.0	0.0	0.0	0.0	0.0	0.0	0.0	0.0	0.0	0.0	0.0				
	755	85.0	-6.759373148713493	80.0	0.0	1.0	110.0	1	250.0	0.0	0.0	0.0	0.0	0.0	0.0	0.0	0.0	0.0	0.0	0.0	0.0				
	760	3.1	-6.790114694514561	2.0	0.0	1.0	4.0	1	3.1	0.0	0.0	0.0	0.0	0.0	0.0	0.0	0.0	0.0	0.0	0.0	0.0				
	766	2.1	-1.8917484904874877	1.0	0.0	1.0	3.0	1	2.1	0.0	0.0	0.0	0.0	0.0	0.0	0.0	0.0	0.0	0.0	0.0	0.0				
	784	0.7	-22.565943698370358	0.0	0.0	1.0	1.0	1	0.7	0.0	0.0	0.0	0.0	0.0	0.0	0.0	0.0	0.0	0.0	0.0	0.0				
	790	49.8	23.822439012158007	35.0	35.0	1.0	60.0	1	49.8	0.0	0.0	0.0	0.0	0.0	0.0	0.0	0.0	0.0	0.0	0.0	0.0				
	795	1.8900000000000001	-3.886657201215609	1.0	1.0	1.0	2.0	1	1.8900000000000001	0.0	0.0	0.0	0.0	0.0	0.0	0.0	0.0	0.0	0.0	0.0	0.0				
	798	2.99	0.2059037525548185	3.0	3.0	1.0	4.0	1	2.99	0.0	0.0	0.0	0.0	0.0	0.0	0.0	0.0	0.0	0.0	0.0	0.0				
	814	44.92	9.415676726507174	42.0	0.0	1.0	54.0	1	44.92	0.0	0.0	0.0	0.0	0.0	0.0	0.0	0.0	0.0	0.0	0.0	0.0				
	834	55.00000000000001	66.92315854221158	83.0	0.0	1.0	110.0	1	55.00000000000001	0.0	0.0	0.0	0.0	0.0	0.0	0.0	0.0	0.0	0.0	0.0	0.0				
	878	2.99	-8.041535602322144	0.0	0.0	1.0	4.0	1	2.99	0.0	0.0	0.0	0.0	0.0	0.0	0.0	0.0	0.0	0.0	0.0	0.0				
	884	2.49	-5.704609674740205	0.0	0.0	1.0	3.0	1	2.49	0.0	0.0	0.0	0.0	0.0	0.0	0.0	0.0	0.0	0.0	0.0	0.0				
	892	31.869999999999997	20.035015849498087	42.0	6.0	1.0	38.0	1	31.869999999999997	0.0	0.0	0.0	0.0	0.0	0.0	0.0	0.0	0.0	0.0	0.0	0.0				
	895	8.96	2.401267331267962	7.000000000000001	7.000000000000001	1.0	11.0	1	8.96	0.0	0.0	0.0	0.0	0.0	0.0	0.0	0.0	0.0	0.0	0.0	0.0				
	901	3.6799999999999997	-5.997081319333457	2.0	2.0	1.0	4.0	1	3.6799999999999997	0.0	0.0	0.0	0.0	0.0	0.0	0.0	0.0	0.0	0.0	0.0	0.0				
	910	4.58	-0.8698335463144106	3.0	3.0	1.0	6.0	1	4.58	0.0	0.0	0.0	0.0	0.0	0.0	0.0	0.0	0.0	0.0	0.0	0.0				
	911	370.0	40.96898287017463	224.00000000000003	0.0	1.0	415.0	1	370.0	0.0	0.0	0.0	0.0	0.0	0.0	0.0	0.0	0.0	0.0	0.0	0.0				
	912	370.0	51.46023077058557	224.00000000000003	0.0	1.0	415.0	1	370.0	0.0	0.0	0.0	0.0	0.0	0.0	0.0	0.0	0.0	0.0	0.0	0.0				
	914	15.93	3.544834421975851	10.0	10.0	1.0	19.0	1	15.93	0.0	0.0	0.0	0.0	0.0	0.0	0.0	0.0	0.0	0.0	0.0	0.0				
	917	2.09	-2.9483659272228686	0.0	0.0	1.0	3.0	1	2.09	0.0	0.0	0.0	0.0	0.0	0.0	0.0	0.0	0.0	0.0	0.0	0.0				
	919	21.91	3.5359607024047572	12.0	12.0	1.0	26.0	1	21.91	0.0	0.0	0.0	0.0	0.0	0.0	0.0	0.0	0.0	0.0	0.0	0.0				
	920	1.9900000000000002	-4.484713322470184	0.0	0.0	1.0	2.0	1	1.9900000000000002	0.0	0.0	0.0	0.0	0.0	0.0	0.0	0.0	0.0	0.0	0.0	0.0				
	929	63.73	23.239666319993855	50.0	28.999999999999996	1.0	77.0	1	63.73	0.0	0.0	0.0	0.0	0.0	0.0	0.0	0.0	0.0	0.0	0.0	0.0				
	959	2.49	-6.101652192022965	1.0	1.0	1.0	3.0	1	2.49	0.0	0.0	0.0	0.0	0.0	0.0	0.0	0.0	0.0	0.0	0.0	0.0				
	968	0.7	-7.561903877889531	0.0	0.0	1.0	1.0	1	0.7	0.0	0.0	0.0	0.0	0.0	0.0	0.0	0.0	0.0	0.0	0.0	0.0				
	993	3.9800000000000004	-2.632077961075124	1.0	1.0	1.0	5.0	1	3.9800000000000004	0.0	0.0	0.0	0.0	0.0	0.0	0.0	0.0	0.0	0.0	0.0	0.0				
	994	1.9900000000000002	0.2460022756087401	1.0	1.0	1.0	2.0	1	1.9900000000000002	0.0	0.0	0.0	0.0	0.0	0.0	0.0	0.0	0.0	0.0	0.0	0.0				
	995	20.0	18.521032697352492	38.0	0.0	1.0	60.0	1	100.0	0.0	0.0	0.0	0.0	0.0	0.0	0.0	0.0	0.0	0.0	0.0	0.0				
	996	20.0	16.197953896317927	38.0	0.0	1.0	60.0	1	50.0	0.0	0.0	0.0	0.0	0.0	0.0	0.0	0.0	0.0	0.0	0.0	0.0				
	997	20.0	23.649823087468942	38.0	0.0	1.0	60.0	1	50.0	0.0	0.0	0.0	0.0	0.0	0.0	0.0	0.0	0.0	0.0	0.0	0.0				
	1004	4.28	7.148821341732646	3.0	3.0	1.0	5.0	1	4.28	0.0	0.0	0.0	0.0	0.0	0.0	0.0	0.0	0.0	0.0	0.0	0.0				
	1024	0.1	-4.548352828282732	0.0	0.0	1.0	0.0	1	0.1	0.0	0.0	0.0	0.0	0.0	0.0	0.0	0.0	0.0	0.0	0.0	0.0				
	1027	24.9	7.002470896427902	13.0	13.0	1.0	30.0	1	24.9	0.0	0.0	0.0	0.0	0.0	0.0	0.0	0.0	0.0	0.0	0.0	0.0				
	1028	2.99	2.2257234738615623	3.0	3.0	1.0	4.0	1	2.99	0.0	0.0	0.0	0.0	0.0	0.0	0.0	0.0	0.0	0.0	0.0	0.0				
	1029	24.9	8.423828413696668	14.000000000000002	14.000000000000002	1.0	30.0	1	24.9	0.0	0.0	0.0	0.0	0.0	0.0	0.0	0.0	0.0	0.0	0.0	0.0				
	1053	59.760000000000005	15.725927852343249	53.0	0.0	1.0	72.0	1	59.760000000000005	0.0	0.0	0.0	0.0	0.0	0.0	0.0	0.0	0.0	0.0	0.0	0.0				
	1054	29.880000000000003	17.22997739453992	31.0	0.0	1.0	36.0	1	29.880000000000003	0.0	0.0	0.0	0.0	0.0	0.0	0.0	0.0	0.0	0.0	0.0	0.0				
	1105	7.969999999999999	6.106218501780584	10.0	10.0	1.0	10.0	1	7.969999999999999	0.0	0.0	0.0	0.0	0.0	0.0	0.0	0.0	0.0	0.0	0.0	0.0				
	1106	22.91	1.751627415549704	13.0	13.0	1.0	28.0	1	22.91	0.0	0.0	0.0	0.0	0.0	0.0	0.0	0.0	0.0	0.0	0.0	0.0				
	1107	10.56	-5.987116803601079	3.0	3.0	1.0	13.0	1	10.56	0.0	0.0	0.0	0.0	0.0	0.0	0.0	0.0	0.0	0.0	0.0	0.0				
	1138	44.82	34.647278470369656	41.0	0.0	1.0	54.0	1	44.82	0.0	0.0	0.0	0.0	0.0	0.0	0.0	0.0	0.0	0.0	0.0	0.0				
	1140	229.99999999999997	43.34708611107689	199.0	-87.0	1.0	252.0	1	229.99999999999997	0.0	0.0	0.0	0.0	0.0	0.0	0.0	0.0	0.0	0.0	0.0	0.0				
	1141	94.917	35.99045647475615	190.0	-89.0	1.0	251.0	1	225.0	0.0	0.0	0.0	0.0	0.0	0.0	0.0	0.0	0.0	0.0	0.0	0.0				
	1175	37.84	5.148386888849878	20.0	20.0	1.0	45.0	1	37.84	0.0	0.0	0.0	0.0	0.0	0.0	0.0	0.0	0.0	0.0	0.0	0.0				
	1182	40.0	-1.1999217566170082	125.0	-50.0	1.0	133.0	1	120.0	0.0	0.0	0.0	0.0	0.0	0.0	0.0	0.0	0.0	0.0	0.0	0.0				
	1183	120.0	4.470814374143029	125.0	-50.0	1.0	133.0	1	120.0	0.0	0.0	0.0	0.0	0.0	0.0	0.0	0.0	0.0	0.0	0.0	0.0				
	1184	120.0	45.46784201891237	125.0	-50.0	1.0	133.0	1	120.0	0.0	0.0	0.0	0.0	0.0	0.0	0.0	0.0	0.0	0.0	0.0	0.0				
	1191	106.56000000000002	14.016360584351704	129.0	-47.0	1.0	128.0	1	106.56000000000002	0.0	0.0	0.0	0.0	0.0	0.0	0.0	0.0	0.0	0.0	0.0	0.0				
	1192	250.0	57.08619558735616	125.0	-50.0	1.0	123.0	1	250.0	0.0	0.0	0.0	0.0	0.0	0.0	0.0	0.0	0.0	0.0	0.0	0.0				
	1201	99.59	-13.387714285005753	90.0	0.0	1.0	120.0	1	99.59	0.0	0.0	0.0	0.0	0.0	0.0	0.0	0.0	0.0	0.0	0.0	0.0				
	1202	99.59	57.280144480553496	90.0	0.0	1.0	120.0	1	99.59	0.0	0.0	0.0	0.0	0.0	0.0	0.0	0.0	0.0	0.0	0.0	0.0				
	1203	99.59	34.583592172725446	90.0	0.0	1.0	120.0	1	99.59	0.0	0.0	0.0	0.0	0.0	0.0	0.0	0.0	0.0	0.0	0.0	0.0				
	1232	51.790000000000006	28.959269307458218	41.0	0.0	1.0	62.0	1	51.790000000000006	0.0	0.0	0.0	0.0	0.0	0.0	0.0	0.0	0.0	0.0	0.0	0.0				
	1233	14.940000000000001	23.2097478510982	41.0	0.0	1.0	18.0	1	14.940000000000001	0.0	0.0	0.0	0.0	0.0	0.0	0.0	0.0	0.0	0.0	0.0	0.0				
	1244	18.92	17.06962522756722	20.0	20.0	1.0	23.0	1	18.92	0.0	0.0	0.0	0.0	0.0	0.0	0.0	0.0	0.0	0.0	0.0	0.0				
	1247	15.93	4.041862887609472	12.0	12.0	1.0	19.0	1	15.93	0.0	0.0	0.0	0.0	0.0	0.0	0.0	0.0	0.0	0.0	0.0	0.0				
	1250	197.19	40.55556377845666	151.0	0.0	1.0	237.0	1	197.19	0.0	0.0	0.0	0.0	0.0	0.0	0.0	0.0	0.0	0.0	0.0	0.0				
	1268	0.5	-6.718600969531216	0.0	0.0	1.0	1.0	1	0.5	0.0	0.0	0.0	0.0	0.0	0.0	0.0	0.0	0.0	0.0	0.0	0.0				
	1316	1.0	-4.859663424851024	0.0	0.0	1.0	1.0	1	1.0	0.0	0.0	0.0	0.0	0.0	0.0	0.0	0.0	0.0	0.0	0.0	0.0				
	1325	1.39	-2.2069198185324193	0.0	0.0	1.0	2.0	1	1.39	0.0	0.0	0.0	0.0	0.0	0.0	0.0	0.0	0.0	0.0	0.0	0.0				
	1349	1.49	-5.2660574211343905	0.0	0.0	1.0	2.0	1	1.49	0.0	0.0	0.0	0.0	0.0	0.0	0.0	0.0	0.0	0.0	0.0	0.0				
	1356	1.0	-4.834757911059416	2.0	2.0	1.0	1.0	1	1.0	0.0	0.0	0.0	0.0	0.0	0.0	0.0	0.0	0.0	0.0	0.0	0.0				
	1359	0.8	-7.730653453626379	1.0	1.0	1.0	1.0	1	0.8	0.0	0.0	0.0	0.0	0.0	0.0	0.0	0.0	0.0	0.0	0.0	0.0				
	1393	12.75	-6.3266130975412045	11.0	0.0	1.0	15.0	1	12.75	0.0	0.0	0.0	0.0	0.0	0.0	0.0	0.0	0.0	0.0	0.0	0.0				
	1403	4.28	-4.076663381813799	1.0	1.0	1.0	5.0	1	4.28	0.0	0.0	0.0	0.0	0.0	0.0	0.0	0.0	0.0	0.0	0.0	0.0				
	1416	371.0	16.252753136645623	180.0	10.0	1.0	246.0	1	371.0	0.0	0.0	0.0	0.0	0.0	0.0	0.0	0.0	0.0	0.0	0.0	0.0				
	1417	120.0	18.49004183284599	120.0	5.0	1.0	123.0	1	120.0	0.0	0.0	0.0	0.0	0.0	0.0	0.0	0.0	0.0	0.0	0.0	0.0				
	1418	20.0	9.49450973252576	90.0	5.0	1.0	123.0	1	20.0	0.0	0.0	0.0	0.0	0.0	0.0	0.0	0.0	0.0	0.0	0.0	0.0				
	1426	495.0	43.540278180301065	68.0	27.0	1.0	106.0	1	495.0	0.0	0.0	0.0	0.0	0.0	0.0	0.0	0.0	0.0	0.0	0.0	0.0				
	1429	0.2	-7.017076386436311	0.0	0.0	1.0	0.0	1	0.2	0.0	0.0	0.0	0.0	0.0	0.0	0.0	0.0	0.0	0.0	0.0	0.0				
	1469	0.6	-6.752931534107602	0.0	0.0	1.0	1.0	1	0.6	0.0	0.0	0.0	0.0	0.0	0.0	0.0	0.0	0.0	0.0	0.0	0.0				
	1475	2.09	-9.803187013225934	2.0	2.0	1.0	3.0	1	2.09	0.0	0.0	0.0	0.0	0.0	0.0	0.0	0.0	0.0	0.0	0.0	0.0				
	1504	31.17	45.93124143248554	2.0	2.0	1.0	37.0	1	31.17	0.0	0.0	0.0	0.0	0.0	0.0	0.0	0.0	0.0	0.0	0.0	0.0				
	1505	48.8	22.982738257248254	4.0	4.0	1.0	59.0	1	48.8	0.0	0.0	0.0	0.0	0.0	0.0	0.0	0.0	0.0	0.0	0.0	0.0				
	1514	2.29	-4.30376115701759	1.0	1.0	1.0	3.0	1	2.29	0.0	0.0	0.0	0.0	0.0	0.0	0.0	0.0	0.0	0.0	0.0	0.0				
	1534	0.3	-0.9250844374156311	0.0	0.0	1.0	0.0	1	0.3	0.0	0.0	0.0	0.0	0.0	0.0	0.0	0.0	0.0	0.0	0.0	0.0				
	1536	160.0	46.10111766795237	190.0	-89.0	1.0	251.0	1	225.0	0.0	0.0	0.0	0.0	0.0	0.0	0.0	0.0	0.0	0.0	0.0	0.0				
	1537	225.0	54.906110345762535	202.99999999999997	-95.0	1.0	255.0	1	225.0	0.0	0.0	0.0	0.0	0.0	0.0	0.0	0.0	0.0	0.0	0.0	0.0				
	1538	215.0	46.411472994903264	190.0	-89.0	1.0	255.0	1	215.0	0.0	0.0	0.0	0.0	0.0	0.0	0.0	0.0	0.0	0.0	0.0	0.0				
	1542	8.96	1.3861758767373147	3.0	3.0	1.0	11.0	1	8.96	0.0	0.0	0.0	0.0	0.0	0.0	0.0	0.0	0.0	0.0	0.0	0.0				
	1543	1.2	-8.489726880213789	0.0	0.0	1.0	1.0	1	1.2	0.0	0.0	0.0	0.0	0.0	0.0	0.0	0.0	0.0	0.0	0.0	0.0				
	1550	1.79	-1.617694368532086	1.0	1.0	1.0	2.0	1	1.79	0.0	0.0	0.0	0.0	0.0	0.0	0.0	0.0	0.0	0.0	0.0	0.0				
	1566	54.77000000000001	15.498274963844786	47.0	20.0	1.0	66.0	1	54.77000000000001	0.0	0.0	0.0	0.0	0.0	0.0	0.0	0.0	0.0	0.0	0.0	0.0				
	1587	63.739999999999995	14.59897696998283	27.0	27.0	1.0	77.0	1	63.739999999999995	0.0	0.0	0.0	0.0	0.0	0.0	0.0	0.0	0.0	0.0	0.0	0.0				
	1600	17.43	-7.1091936201213235	3.0	3.0	1.0	21.0	1	17.43	0.0	0.0	0.0	0.0	0.0	0.0	0.0	0.0	0.0	0.0	0.0	0.0				
	1602	120.0	4.069167663366413	90.0	0.0	1.0	144.0	1	120.0	0.0	0.0	0.0	0.0	0.0	0.0	0.0	0.0	0.0	0.0	0.0	0.0				
	1603	120.0	52.959263890910655	90.0	0.0	1.0	144.0	1	120.0	0.0	0.0	0.0	0.0	0.0	0.0	0.0	0.0	0.0	0.0	0.0	0.0				
	1609	0.3	-5.218692969999932	0.0	0.0	1.0	0.0	1	0.3	0.0	0.0	0.0	0.0	0.0	0.0	0.0	0.0	0.0	0.0	0.0	0.0				
	1617	2.0	-6.979335632927815	0.0	0.0	1.0	2.0	1	2.0	0.0	0.0	0.0	0.0	0.0	0.0	0.0	0.0	0.0	0.0	0.0	0.0				
	1620	1.6	-8.378245403476555	0.0	0.0	1.0	2.0	1	1.6	0.0	0.0	0.0	0.0	0.0	0.0	0.0	0.0	0.0	0.0	0.0	0.0				
...
];
%% branch data
%    f_bus    t_bus    r    x    b    rateA    rateB    rateC    ratio    angle    status    angmin    angmax
mpc.branch = [
	16	1	0.00155	0.01169	0.0182	160.0	160.0	160.0	0	0	1	-60.0001403060998	60.0001403060998								
	355	1	0.00157	0.06612	0.0	160.0	160.0	160.0	1.0099	0.0	1	-60.0001403060998	60.0001403060998								
	17	2	0.00155	0.01169	0.0182	160.0	160.0	160.0	0	0	1	-60.0001403060998	60.0001403060998								
	354	2	0.00157	0.06612	0.0	160.0	160.0	160.0	1.022	0.0	1	-60.0001403060998	60.0001403060998								
	10	3	0.01068	0.07895	0.1226	274.0	274.0	274.0	0	0	1	-60.0001403060998	60.0001403060998								
	219	3	0.00165	0.06736	0.0	160.0	160.0	160.0	1.027	0.0	1	-60.0001403060998	60.0001403060998								
	220	3	0.00165	0.06736	0.0	160.0	160.0	160.0	0.9955	0.0	1	-60.0001403060998	60.0001403060998								
	7	4	0.01674	0.09711	0.14423	377.0	377.0	377.0	0	0	1	-60.0001403060998	60.0001403060998								
	11	4	0.00293	0.01599	0.02478	335.0	335.0	335.0	0	0	1	-60.0001403060998	60.0001403060998								
	14	4	0.00442	0.03223	0.04985	463.99999999999994	463.99999999999994	463.99999999999994	0	0	1	-60.0001403060998	60.0001403060998								
	16	4	0.00888	0.06665	0.08896	377.0	377.0	377.0	0	0	1	-60.0001403060998	60.0001403060998								
	22	4	0.00783	0.043	0.04962	350.0	350.0	350.0	0	0	1	-60.0001403060998	60.0001403060998								
	245	4	0.00165	0.06901	0.0	160.0	160.0	160.0	1.0594	0.0	1	-60.0001403060998	60.0001403060998								
	246	4	0.00165	0.06901	0.0	160.0	160.0	160.0	1.0448	0.0	1	-60.0001403060998	60.0001403060998								
	5	6	0.00064	0.0305	0.0	400.0	400.0	400.0	1.0435	-0.6	1	-60.0001403060998	60.0001403060998								
	7	5	0.00525	0.03988	0.06195	381.0	381.0	381.0	0	0	1	-60.0001403060998	60.0001403060998								
	10	5	0.01459	0.11219	0.16553	381.0	381.0	381.0	0	0	1	-60.0001403060998	60.0001403060998								
	309	5	0.00165	0.0686	0.0	160.0	160.0	160.0	1.0646	0.0	1	-60.0001403060998	60.0001403060998								
	309	5	0.00165	0.0686	0.0	160.0	160.0	160.0	1.0523	0.0	1	-60.0001403060998	60.0001403060998								
	6	8	0.00112	0.01329	0.34125	1316.0	1316.0	1316.0	0	0	1	-60.0001403060998	60.0001403060998								
	6	9	0.00299	0.03675	0.9184	1427.0	1427.0	1427.0	0	0	1	-60.0001403060998	60.0001403060998								
	15	6	0.00298	0.03417	0.93504	1427.0	1427.0	1427.0	0	0	1	-60.0001403060998	60.0001403060998								
	31	6	0.0015	0.01506	0.4032	1385.0	1385.0	1385.0	0	0	1	-60.0001403060998	60.0001403060998								
	310	6	0.0015	0.06188	0.0	250.0	250.0	250.0	1.0613	0.0	1	-60.0001403060998	60.0001403060998								
	12	7	0.01211	0.08742	0.14017	381.0	381.0	381.0	0	0	1	-60.0001403060998	60.0001403060998								
	13	7	0.00205	0.01326	0.02243	335.0	335.0	335.0	0	0	1	-60.0001403060998	60.0001403060998								
	19	7	0.0057	0.0407	0.06021	323.0	323.0	323.0	0	0	1	-60.0001403060998	60.0001403060998								
	21	7	0.00093	0.00651	0.01113	160.0	160.0	160.0	0	0	1	-60.0001403060998	60.0001403060998								
	29	7	0.01269	0.07498	0.1302	362.0	362.0	362.0	0	0	1	-60.0001403060998	60.0001403060998								
	321	7	0.00041	0.03368	0.0	250.0	250.0	250.0	1.0323	0.0	1	-60.0001403060998	60.0001403060998								
	322	7	0.00165	0.06775	0.0	160.0	160.0	160.0	1.0569	0.0	1	-60.0001403060998	60.0001403060998								
	8	18	0.00336	0.03977	1.02163	1316.0	1316.0	1316.0	0	0	1	-60.0001403060998	60.0001403060998								
	332	9	0.00087	0.05244	-0.02144	330.0	330.0	330.0	1.0781	0.0	1	-60.0001403060998	60.0001403060998								
	171	10	0.01409	0.10413	0.15972	463.99999999999994	463.99999999999994	463.99999999999994	0	0	1	-60.0001403060998	60.0001403060998								
	346	10	0.00124	0.06839	0.0	160.0	160.0	160.0	1.0054	0.0	1	-60.0001403060998	60.0001403060998								
	347	10	0.00124	0.06839	0.0	160.0	160.0	160.0	1.024	0.0	1	-60.0001403060998	60.0001403060998								
	16	11	0.0057	0.03952	0.07553	463.99999999999994	463.99999999999994	463.99999999999994	0	0	1	-60.0001403060998	60.0001403060998								
	17	11	0.0057	0.03952	0.07553	463.99999999999994	463.99999999999994	463.99999999999994	0	0	1	-60.0001403060998	60.0001403060998								
	111	11	0.01068	0.06196	0.09496	394.0	394.0	394.0	0	0	1	-60.0001403060998	60.0001403060998								
	352	11	0.00165	0.06901	0.0	160.0	160.0	160.0	1.0412	0.0	1	-60.0001403060998	60.0001403060998								
	353	11	0.00165	0.06901	0.0	160.0	160.0	160.0	1.0559	0.0	1	-60.0001403060998	60.0001403060998								
	140	12	0.01465	0.10589	0.17085	463.99999999999994	463.99999999999994	463.99999999999994	0	0	1	-60.0001403060998	60.0001403060998								
	359	12	0.00155	0.06612	0.0	160.0	160.0	160.0	1.0395	0.0	1	-60.0001403060998	60.0001403060998								
	360	12	0.00157	0.06612	0.0	160.0	160.0	160.0	1.059	0.0	1	-60.0001403060998	60.0001403060998								
	29	13	0.01345	0.08114	0.14113	339.0	339.0	339.0	0	0	1	-60.0001403060998	60.0001403060998								
	365	13	0.00165	0.06901	0.0	160.0	160.0	160.0	1.0312	0.0	1	-60.0001403060998	60.0001403060998								
	366	13	0.00165	0.06901	0.0	160.0	160.0	160.0	0.9872	0.0	1	-60.0001403060998	60.0001403060998								
	17	14	0.00384	0.02853	0.04588	463.99999999999994	463.99999999999994	463.99999999999994	0	0	1	-60.0001403060998	60.0001403060998								
	367	14	0.00157	0.06798	0.0	160.0	160.0	160.0	1.0664	0.0	1	-60.0001403060998	60.0001403060998								
	368	14	0.00165	0.06901	0.0	160.0	160.0	160.0	1.0777	0.0	1	-60.0001403060998	60.0001403060998								
	18	15	0.00358	0.04262	1.0944	1662.0	1662.0	1662.0	0	0	1	-60.0001403060998	60.0001403060998								
	15	165	0.00207	0.02474	0.664	831.0	831.0	831.0	0	0	1	-60.0001403060998	60.0001403060998								
	374	15	0.0015	0.06188	0.0	250.0	250.0	250.0	1.1502	0.0	1	-60.0001403060998	60.0001403060998								
	16	18	0.00036	0.02519	0.0	500.0	500.0	500.0	1.0605	0.0	1	-60.0001403060998	60.0001403060998								
	16	73	0.00909	0.0624	0.11142	463.99999999999994	463.99999999999994	463.99999999999994	0	0	1	-60.0001403060998	60.0001403060998								
	17	18	0.00036	0.02519	0.0	500.0	500.0	500.0	1.0607	0.0	1	-60.0001403060998	60.0001403060998								
	17	74	0.00868	0.06405	0.09699	463.99999999999994	463.99999999999994	463.99999999999994	0	0	1	-60.0001403060998	60.0001403060998								
	20	18	0.00063	0.00749	0.39226	1427.0	1427.0	1427.0	0	0	1	-60.0001403060998	60.0001403060998								
	75	18	0.00219	0.02369	0.59584	1434.0	1434.0	1434.0	0	0	1	-60.0001403060998	60.0001403060998								
	18	76	0.00137	0.01625	0.41184	1662.0	1662.0	1662.0	0	0	1	-60.0001403060998	60.0001403060998								
	18	101	0.00231	0.02769	0.70144	1662.0	1662.0	1662.0	0	0	1	-60.0001403060998	60.0001403060998								
	124	19	0.01696	0.12366	0.19699	463.99999999999994	463.99999999999994	463.99999999999994	0	0	1	-60.0001403060998	60.0001403060998								
	425	19	0.00165	0.06818	0.0	160.0	160.0	160.0	1.0241	0.0	1	-60.0001403060998	60.0001403060998								
	67	20	0.00331	0.03425	0.85888	831.0	831.0	831.0	0	0	1	-60.0001403060998	60.0001403060998								
	447	20	0.00137	0.06119	-0.01504	250.0	250.0	250.0	1.0796	0.0	1	-60.0001403060998	60.0001403060998								
	448	20	0.00137	0.06119	-0.01504	250.0	250.0	250.0	1.0923	0.0	1	-60.0001403060998	60.0001403060998								
	502	21	0.00165	0.07107	0.0	160.0	160.0	160.0	0.9922	0.0	1	-60.0001403060998	60.0001403060998								
	112	22	0.00465	0.02618	0.02962	362.0	362.0	362.0	0	0	1	-60.0001403060998	60.0001403060998								
	526	22	0.00165	0.06901	0.0	160.0	160.0	160.0	1.0685	0.0	1	-60.0001403060998	60.0001403060998								
	527	22	0.00165	0.06901	0.0	160.0	160.0	160.0	1.0424	0.0	1	-60.0001403060998	60.0001403060998								
	37	23	0.01163	0.07031	0.1058	394.0	394.0	394.0	0	0	1	-60.0001403060998	60.0001403060998								
	46	23	0.00837	0.04868	0.07348	457.0	457.0	457.0	0	0	1	-60.0001403060998	60.0001403060998								
	53	23	0.01122	0.06558	0.09835	274.0	274.0	274.0	0	0	1	-60.0001403060998	60.0001403060998								
	540	23	0.0014	0.0668	0.0	160.0	160.0	160.0	1.0182	0.0	1	-60.0001403060998	60.0001403060998								
	54	24	0.00769	0.05727	0.08789	160.0	160.0	160.0	0	0	1	-60.0001403060998	60.0001403060998								
	545	24	0.00151	0.06715	0.0	160.0	160.0	160.0	1.0161	0.0	1	-60.0001403060998	60.0001403060998								
	41	25	0.00556	0.04145	0.0636	274.0	274.0	274.0	0	0	1	-60.0001403060998	60.0001403060998								
	53	25	0.00452	0.03368	0.05169	463.99999999999994	463.99999999999994	463.99999999999994	0	0	1	-60.0001403060998	60.0001403060998								
	54	25	0.00019	0.0014	0.00213	463.99999999999994	463.99999999999994	463.99999999999994	0	0	1	-60.0001403060998	60.0001403060998								
	564	25	0.00157	0.07808	0.0	160.0	160.0	160.0	1.0276	0.0	1	-60.0001403060998	60.0001403060998								
	38	26	0.00698	0.05196	0.07967	160.0	160.0	160.0	0	0	1	-60.0001403060998	60.0001403060998								
	568	26	0.00149	0.06616	0.0	160.0	160.0	160.0	1.013	0.0	1	-60.0001403060998	60.0001403060998								
	28	27	0.0	0.0001	0.0	876.0	876.0	876.0	0	0	1	-60.0001403060998	60.0001403060998								
	33	27	0.0024	0.01494	0.02253	160.0	160.0	160.0	0	0	1	-60.0001403060998	60.0001403060998								
	48	27	0.01213	0.06215	0.09371	362.0	362.0	362.0	0	0	1	-60.0001403060998	60.0001403060998								
	27	74	0.01116	0.07231	0.10367	304.0	304.0	304.0	0	0	1	-60.0001403060998	60.0001403060998								
	47	28	0.00248	0.01798	0.02759	463.99999999999994	463.99999999999994	463.99999999999994	0	0	1	-60.0001403060998	60.0001403060998								
	28	88	0.01488	0.08161	0.1148	362.0	362.0	362.0	0	0	1	-60.0001403060998	60.0001403060998								
	30	29	0.0	0.0001	0.0	876.0	876.0	876.0	0	0	1	-60.0001403060998	60.0001403060998								
	29	32	0.00034	0.02097	0.0	500.0	500.0	500.0	1.0619	0.0	1	-60.0001403060998	60.0001403060998								
	45	29	0.00545	0.04021	0.06699	463.99999999999994	463.99999999999994	463.99999999999994	0	0	1	-60.0001403060998	60.0001403060998								
	48	29	0.00574	0.04283	0.06573	463.99999999999994	463.99999999999994	463.99999999999994	0	0	1	-60.0001403060998	60.0001403060998								
	613	29	0.00157	0.06775	0.0	160.0	160.0	160.0	1.0016	0.0	1	-60.0001403060998	60.0001403060998								
	46	30	0.00545	0.04021	0.06699	463.99999999999994	463.99999999999994	463.99999999999994	0	0	1	-60.0001403060998	60.0001403060998								
	49	30	0.00707	0.04541	0.06931	362.0	362.0	362.0	0	0	1	-60.0001403060998	60.0001403060998								
	32	31	0.0	0.0001	0.0	1593.0	1593.0	1593.0	0	0	1	-60.0001403060998	60.0001403060998								
	39	31	0.00176	0.02144	0.57344	1385.0	1385.0	1385.0	0	0	1	-60.0001403060998	60.0001403060998								
	36	32	0.00167	0.0189	0.54176	498.00000000000006	498.00000000000006	498.00000000000006	0	0	1	-60.0001403060998	60.0001403060998								
	615	33	0.00163	0.06946	0.0	160.0	160.0	160.0	1.0291	0.0	1	-60.0001403060998	60.0001403060998								
	35	34	0.0	0.0001	0.0	1593.0	1593.0	1593.0	0	0	1	-60.0001403060998	60.0001403060998								
	34	51	0.00113	0.01406	0.37488	1385.0	1385.0	1385.0	0	0	1	-60.0001403060998	60.0001403060998								
	183	34	0.00188	0.02287	0.6432	1385.0	1385.0	1385.0	0	0	1	-60.0001403060998	60.0001403060998								
	183	35	0.00188	0.02287	0.6432	1385.0	1385.0	1385.0	0	0	1	-60.0001403060998	60.0001403060998								
	617	35	0.00135	0.06052	0.0	250.0	250.0	250.0	1.0654	0.0	1	-60.0001403060998	60.0001403060998								
	644	36	0.00135	0.06052	0.0	250.0	250.0	250.0	1.1003	0.0	1	-60.0001403060998	60.0001403060998								
	645	36	0.00153	0.06156	0.0	250.0	250.0	250.0	1.0971	0.0	1	-60.0001403060998	60.0001403060998								
	38	37	0.0	0.0001	0.0	876.0	876.0	876.0	0	0	1	-60.0001403060998	60.0001403060998								
	663	37	0.00157	0.06616	0.0	160.0	160.0	160.0	1.0009	0.0	1	-60.0001403060998	60.0001403060998								
	55	38	0.00316	0.02076	0.03146	394.0	394.0	394.0	0	0	1	-60.0001403060998	60.0001403060998								
	40	39	0.0	0.0001	0.0	1593.0	1593.0	1593.0	0	0	1	-60.0001403060998	60.0001403060998								
	682	39	0.00139	0.05984	0.0	250.0	250.0	250.0	1.0603	0.0	1	-60.0001403060998	60.0001403060998								
	44	40	0.00109	0.01277	0.34176	1385.0	1385.0	1385.0	0	0	1	-60.0001403060998	60.0001403060998								
	679	40	0.0014	0.06235	0.0	250.0	250.0	250.0	1.0996	0.0	1	-60.0001403060998	60.0001403060998								
	42	41	0.0	0.0001	0.0	876.0	876.0	876.0	0	0	1	-60.0001403060998	60.0001403060998								
	41	43	0.00081	0.03	0.0	400.0	400.0	400.0	1.0377	0.0	1	-60.0001403060998	60.0001403060998								
	80	41	0.00372	0.0438	0.10096	609.0	609.0	609.0	0	0	1	-60.0001403060998	60.0001403060998								
	47	42	0.00882	0.06564	0.10066	274.0	274.0	274.0	0	0	1	-60.0001403060998	60.0001403060998								
	54	42	0.00355	0.02643	0.04056	392.0	392.0	392.0	0	0	1	-60.0001403060998	60.0001403060998								
	689	42	0.00145	0.06839	0.0	160.0	160.0	160.0	1.0037	0.0	1	-60.0001403060998	60.0001403060998								
	44	43	0.0	0.0001	0.0	1593.0	1593.0	1593.0	0	0	1	-60.0001403060998	60.0001403060998								
	99	43	0.00169	0.01994	0.50624	831.0	831.0	831.0	0	0	1	-60.0001403060998	60.0001403060998								
	50	44	0.00094	0.01097	0.29376	1662.0	1662.0	1662.0	0	0	1	-60.0001403060998	60.0001403060998								
	46	45	0.0	0.0001	0.0	876.0	876.0	876.0	0	0	1	-60.0001403060998	60.0001403060998								
	49	45	0.01048	0.06097	0.09205	394.0	394.0	394.0	0	0	1	-60.0001403060998	60.0001403060998								
	706	47	0.00157	0.06775	0.0	160.0	160.0	160.0	1.0249	0.0	1	-60.0001403060998	60.0001403060998								
	707	47	0.00165	0.06775	0.0	160.0	160.0	160.0	1.0201	0.0	1	-60.0001403060998	60.0001403060998								
	49	48	0.0	0.0001	0.0	876.0	876.0	876.0	0	0	1	-60.0001403060998	60.0001403060998								
	717	48	0.00163	0.06783	0.0	160.0	160.0	160.0	1.023	0.0	1	-60.0001403060998	60.0001403060998								
	716	49	0.00143	0.06831	0.0	160.0	160.0	160.0	1.0238	0.0	1	-60.0001403060998	60.0001403060998								
	51	50	0.0	0.0001	0.0	1593.0	1593.0	1593.0	0	0	1	-60.0001403060998	60.0001403060998								
	98	50	0.0015	0.01788	0.4512	831.0	831.0	831.0	0	0	1	-60.0001403060998	60.0001403060998								
	100	50	0.00469	0.05544	1.4048	831.0	831.0	831.0	0	0	1	-60.0001403060998	60.0001403060998								
	726	50	0.00139	0.0608	0.0	250.0	250.0	250.0	1.0815	0.0	1	-60.0001403060998	60.0001403060998								
	727	51	0.0014	0.06235	0.0	250.0	250.0	250.0	1.0819	0.0	1	-60.0001403060998	60.0001403060998								
	53	52	0.00151	0.00878	0.01316	160.0	160.0	160.0	0	0	1	-60.0001403060998	60.0001403060998								
	754	52	0.00163	0.06754	0.0	160.0	160.0	160.0	1.0317	0.0	1	-60.0001403060998	60.0001403060998								
	181	55	0.01434	0.08353	0.12603	394.0	394.0	394.0	0	0	1	-60.0001403060998	60.0001403060998								
	778	55	0.00161	0.06762	0.0	160.0	160.0	160.0	0.9979	0.0	1	-60.0001403060998	60.0001403060998								
	74	56	0.00207	0.01281	0.02052	394.0	394.0	394.0	0	0	1	-60.0001403060998	60.0001403060998								
	796	56	0.00207	0.06777	-0.003	160.0	160.0	160.0	1.0389	0.0	1	-60.0001403060998	60.0001403060998								
	81	57	0.00083	0.00496	0.00726	137.0	137.0	137.0	0	0	1	-60.0001403060998	60.0001403060998								
	80	58	0.00083	0.00496	0.00726	137.0	137.0	137.0	0	0	1	-60.0001403060998	60.0001403060998								
	63	59	0.00207	0.01405	0.02265	362.0	362.0	362.0	0	0	1	-60.0001403060998	60.0001403060998								
	82	59	0.01116	0.07045	0.11606	362.0	362.0	362.0	0	0	1	-60.0001403060998	60.0001403060998								
	821	59	0.00165	0.06798	-0.00319	160.0	160.0	160.0	1.0178	0.0	1	-60.0001403060998	60.0001403060998								
	60	85	0.01095	0.0593	0.08441	362.0	362.0	362.0	0	0	1	-60.0001403060998	60.0001403060998								
	104	60	0.00599	0.04091	0.07212	463.99999999999994	463.99999999999994	463.99999999999994	0	0	1	-60.0001403060998	60.0001403060998								
	834	60	0.00145	0.06921	-0.00532	160.0	160.0	160.0	0.9936	0.0	1	-60.0001403060998	60.0001403060998								
	836	60	0.00372	0.12583	-0.00242	100.0	100.0	100.0	1.0154	0.0	1	-60.0001403060998	60.0001403060998								
	62	61	0.0	0.0001	0.0	876.0	876.0	876.0	0	0	1	-60.0001403060998	60.0001403060998								
	64	61	0.00517	0.03843	0.05876	463.99999999999994	463.99999999999994	463.99999999999994	0	0	1	-60.0001403060998	60.0001403060998								
	109	61	0.00083	0.0062	0.00958	463.99999999999994	463.99999999999994	463.99999999999994	0	0	1	-60.0001403060998	60.0001403060998								
	184	61	0.01219	0.07066	0.11742	274.0	274.0	274.0	0	0	1	-60.0001403060998	60.0001403060998								
	82	62	0.00165	0.01095	0.01955	463.99999999999994	463.99999999999994	463.99999999999994	0	0	1	-60.0001403060998	60.0001403060998								
	110	62	0.00083	0.0062	0.00949	463.99999999999994	463.99999999999994	463.99999999999994	0	0	1	-60.0001403060998	60.0001403060998								
	71	63	0.00475	0.03079	0.04879	362.0	362.0	362.0	0	0	1	-60.0001403060998	60.0001403060998								
	91	63	0.00455	0.02769	0.04608	394.0	394.0	394.0	0	0	1	-60.0001403060998	60.0001403060998								
	94	63	0.00186	0.0126	0.02236	463.99999999999994	463.99999999999994	463.99999999999994	0	0	1	-60.0001403060998	60.0001403060998								
	96	63	0.00826	0.04236	0.06118	362.0	362.0	362.0	0	0	1	-60.0001403060998	60.0001403060998								
	64	69	0.00434	0.02975	0.05266	463.99999999999994	463.99999999999994	463.99999999999994	0	0	1	-60.0001403060998	60.0001403060998								
	79	64	0.00351	0.02438	0.03998	362.0	362.0	362.0	0	0	1	-60.0001403060998	60.0001403060998								
	93	64	0.00186	0.0126	0.02236	463.99999999999994	463.99999999999994	463.99999999999994	0	0	1	-60.0001403060998	60.0001403060998								
	95	64	0.00826	0.04236	0.06118	362.0	362.0	362.0	0	0	1	-60.0001403060998	60.0001403060998								
	90	65	0.00785	0.04132	0.06389	394.0	394.0	394.0	0	0	1	-60.0001403060998	60.0001403060998								
	65	91	0.00227	0.01446	0.02585	394.0	394.0	394.0	0	0	1	-60.0001403060998	60.0001403060998								
	66	67	0.00031	0.02094	0.0	500.0	500.0	500.0	1.0616	0.0	1	-60.0001403060998	60.0001403060998								
	66	68	0.00248	0.02355	0.04763	457.0	457.0	457.0	0	0	1	-60.0001403060998	60.0001403060998								
	152	66	0.01033	0.08285	0.13959	463.99999999999994	463.99999999999994	463.99999999999994	0	0	1	-60.0001403060998	60.0001403060998								
	138	67	0.00194	0.02056	0.51584	866.0	866.0	866.0	0	0	1	-60.0001403060998	60.0001403060998								
	911	67	0.00156	0.06269	-0.00992	250.0	250.0	250.0	1.0656	0.0	1	-60.0001403060998	60.0001403060998								
	912	67	0.00156	0.06269	-0.00992	250.0	250.0	250.0	1.066	0.0	1	-60.0001403060998	60.0001403060998								
	68	78	0.00579	0.04153	0.06621	463.99999999999994	463.99999999999994	463.99999999999994	0	0	1	-60.0001403060998	60.0001403060998								
	978	68	0.00165	0.06694	-0.0031	160.0	160.0	160.0	1.0083	0.0	1	-60.0001403060998	60.0001403060998								
	979	68	0.00145	0.06653	-0.00319	160.0	160.0	160.0	1.006	0.0	1	-60.0001403060998	60.0001403060998								
	83	69	0.00145	0.00992	0.01762	463.99999999999994	463.99999999999994	463.99999999999994	0	0	1	-60.0001403060998	60.0001403060998								
	995	69	0.00145	0.0655	-0.00252	160.0	160.0	160.0	1.0107	0.0	1	-60.0001403060998	60.0001403060998								
	996	69	0.00145	0.07045	-0.00252	160.0	160.0	160.0	1.0025	0.0	1	-60.0001403060998	60.0001403060998								
	70	73	0.00145	0.00971	0.01626	457.0	457.0	457.0	0	0	1	-60.0001403060998	60.0001403060998								
	107	70	0.00062	0.00413	0.00697	457.0	457.0	457.0	0	0	1	-60.0001403060998	60.0001403060998								
	72	71	0.0	0.0001	0.0	876.0	876.0	876.0	0	0	1	-60.0001403060998	60.0001403060998								
	86	71	0.00165	0.00971	0.01423	362.0	362.0	362.0	0	0	1	-60.0001403060998	60.0001403060998								
	1059	71	0.00145	0.06983	-0.00232	160.0	160.0	160.0	1.0193	0.0	1	-60.0001403060998	60.0001403060998								
	1060	71	0.00165	0.06777	-0.00281	160.0	160.0	160.0	0.9558	0.0	1	-60.0001403060998	60.0001403060998								
	73	75	0.00075	0.02444	-0.00832	330.0	330.0	330.0	1.0544	1.7	1	-60.0001403060998	60.0001403060998								
	87	73	0.00393	0.02851	0.04501	463.99999999999994	463.99999999999994	463.99999999999994	0	0	1	-60.0001403060998	60.0001403060998								
	74	76	0.00075	0.02469	-0.008	330.0	330.0	330.0	1.0606	1.7	1	-60.0001403060998	60.0001403060998								
	74	108	0.00083	0.00517	0.00871	463.99999999999994	463.99999999999994	463.99999999999994	0	0	1	-60.0001403060998	60.0001403060998								
	76	75	0.0	0.0001	0.0	1593.0	1593.0	1593.0	0	0	1	-60.0001403060998	60.0001403060998								
	76	105	0.00244	0.02756	0.768	844.9999999999999	844.9999999999999	844.9999999999999	0	0	1	-60.0001403060998	60.0001403060998								
...